@<TRIPOS>MOLECULE
4IP
   39    39     1     0     0
SMALL
bcc


@<TRIPOS>ATOM
      1 P1         -28.0690    -4.6680    -3.7430 p5         1 4IP       1.451800
      2 P3         -26.7960     2.0310    -4.3630 p5         1 4IP       1.574800
      3 P4         -22.6620    -1.8640    -5.6050 p5         1 4IP       1.528900
      4 P5         -21.9450    -2.8800    -2.1020 p5         1 4IP       1.574800
      5 O1P        -27.1490    -5.5670    -4.4770 o          1 4IP      -0.874000
      6 O3P        -27.9040    -4.7740    -2.1440 o          1 4IP      -0.874000
      7 O5P        -26.2390     3.5320    -4.5410 o          1 4IP      -0.894500
      8 O6P        -27.5010     1.9880    -2.9160 o          1 4IP      -0.894500
      9 O7P        -22.2070    -1.4590    -6.9540 o          1 4IP      -0.933167
     10 O9P        -21.5510    -1.6100    -4.4660 o          1 4IP      -0.933167
     11 C1         -26.7980    -2.3650    -3.4860 c3         1 4IP       0.178100
     12 O1         -27.8480    -3.1150    -4.1090 os         1 4IP      -0.600200
     13 C2         -26.7300    -0.9830    -4.1370 c3         1 4IP       0.097100
     14 O2         -26.5350    -1.1350    -5.5450 oh         1 4IP      -0.656300
     15 C3         -25.5770    -0.1620    -3.5560 c3         1 4IP       0.221100
     16 O3         -25.4960     1.0900    -4.2460 os         1 4IP      -0.593700
     17 C4         -24.2490    -0.9060    -3.7250 c3         1 4IP       0.149100
     18 O4         -23.9800    -1.0740    -5.1220 os         1 4IP      -0.593200
     19 C5         -24.3290    -2.2830    -3.0590 c3         1 4IP       0.221100
     20 O5         -23.0920    -2.9840    -3.2280 os         1 4IP      -0.593700
     21 C6         -25.4660    -3.0980    -3.6750 c3         1 4IP       0.097100
     22 O6         -25.5260    -4.3820    -3.0470 oh         1 4IP      -0.656300
     23 OPF        -22.0890    -3.8960    -1.0350 o          1 4IP      -0.894500
     24 OPH        -20.5430    -2.9930    -2.8850 o          1 4IP      -0.894500
     25 H01        -27.2220     1.6920    -6.2750 ho         1 4IP       0.400000
     26 H02        -29.8020    -4.3010    -4.6460 ho         1 4IP       0.433000
     27 H03        -22.6340    -1.4800    -0.8690 ho         1 4IP       0.400000
     28 O01        -27.6850     1.6310    -5.4360 oh         1 4IP      -0.821900
     29 O02        -29.4650    -4.9460    -4.0200 oh         1 4IP      -0.813400
     30 O03        -22.0100    -1.5230    -1.5980 oh         1 4IP      -0.821900
     31 O04        -22.9980    -3.2730    -5.5250 o          1 4IP      -0.933167
     32 HO2        -27.2380    -1.7430    -5.9150 ho         1 4IP       0.440500
     33 HO6        -24.6700    -4.8710    -3.2100 ho         1 4IP       0.440500
     34 H1         -27.0040    -2.2570    -2.4320 h1         1 4IP       0.039700
     35 H2         -27.6570    -0.4710    -3.9540 h1         1 4IP       0.028700
     36 H3         -25.7590     0.0120    -2.5090 h1         1 4IP      -0.030300
     37 H4         -23.4610    -0.3290    -3.2700 h1         1 4IP       0.030700
     38 H5         -24.5210    -2.1480    -2.0060 h1         1 4IP      -0.030300
     39 H6         -25.2760    -3.2240    -4.7280 h1         1 4IP       0.028700
@<TRIPOS>BOND
     1     1     5 1   
     2     1     6 1   
     3     1    12 1   
     4     1    29 1   
     5     2     7 1   
     6     2     8 1   
     7     2    16 1   
     8     2    28 1   
     9     3     9 1   
    10     3    10 1   
    11     3    18 1   
    12     3    31 1   
    13     4    20 1   
    14     4    23 1   
    15     4    24 1   
    16     4    30 1   
    17    11    12 1   
    18    11    13 1   
    19    11    21 1   
    20    11    34 1   
    21    13    14 1   
    22    13    15 1   
    23    13    35 1   
    24    14    32 1   
    25    15    16 1   
    26    15    17 1   
    27    15    36 1   
    28    17    18 1   
    29    17    19 1   
    30    17    37 1   
    31    19    20 1   
    32    19    21 1   
    33    19    38 1   
    34    21    22 1   
    35    21    39 1   
    36    22    33 1   
    37    25    28 1   
    38    26    29 1   
    39    27    30 1   
@<TRIPOS>SUBSTRUCTURE
     1 4IP         1 TEMP              0 ****  ****    0 ROOT
