@<TRIPOS>MOLECULE
4IP
   40    40     1     0     0
SMALL
bcc


@<TRIPOS>ATOM
      1 P1         -16.5340     3.6040     0.5470 p5      1228 4IP       1.467800
      2 P3         -12.3320     7.0680    -3.6050 p5      1228 4IP       1.477800
      3 P4         -13.6940     1.5360    -4.7660 p5      1228 4IP       1.502800
      4 P5         -11.6680     0.0030    -2.0520 p5      1228 4IP       1.477800
      5 O1P        -17.1600     2.3950    -0.0370 o       1228 4IP      -0.850000
      6 O3P        -15.4640     3.2590     1.7010 o       1228 4IP      -0.850000
      7 O5P        -11.2980     7.6430    -4.6970 o       1228 4IP      -0.869750
      8 O6P        -11.7090     7.4340    -2.1660 o       1228 4IP      -0.869750
      9 O7P        -14.1440     1.5850    -6.1750 o       1228 4IP      -0.880500
     10 O9P        -12.2950     0.7580    -4.5810 o       1228 4IP      -0.880500
     11 C1         -14.4110     4.1230    -0.9400 c3      1228 4IP       0.151100
     12 O1         -15.7400     4.4840    -0.5450 os      1228 4IP      -0.588200
     13 C2         -13.9770     5.0340    -2.0890 c3      1228 4IP       0.122100
     14 O2         -14.9170     4.9210    -3.1600 oh      1228 4IP      -0.633800
     15 C3         -12.5870     4.6450    -2.5980 c3      1228 4IP       0.153100
     16 O3         -12.2520     5.4650    -3.7230 os      1228 4IP      -0.587200
     17 C4         -12.5650     3.1770    -3.0330 c3      1228 4IP       0.179100
     18 O4         -13.4750     2.9970    -4.1240 os      1228 4IP      -0.580200
     19 C5         -12.9910     2.2770    -1.8690 c3      1228 4IP       0.153100
     20 O5         -12.9830     0.9050    -2.2790 os      1228 4IP      -0.587200
     21 C6         -14.3930     2.6600    -1.3960 c3      1228 4IP       0.122100
     22 O6         -14.7800     1.8100    -0.3130 oh      1228 4IP      -0.633800
     23 OPF        -11.6380    -0.6510    -0.7240 o       1228 4IP      -0.869750
     24 OPH        -11.6390    -1.0510    -3.2680 o       1228 4IP      -0.869750
     25 H01        -13.9940     7.3490    -4.6600 ho      1228 4IP       0.444000
     26 H02        -17.6740     5.2330     0.5570 ho      1228 4IP       0.408000
     27 H03        -10.3060     1.3170    -1.4410 ho      1228 4IP       0.444000
     28 H04        -14.7970     1.4020    -3.1170 ho      1228 4IP       0.449000
     29 O01        -13.6780     7.5780    -3.7830 oh      1228 4IP      -0.803400
     30 O02        -17.5000     4.5000     1.1520 oh      1228 4IP      -0.803400
     31 O03        -10.5410     0.8890    -2.2680 oh      1228 4IP      -0.803400
     32 O04        -14.6410     0.8640    -3.8970 oh      1228 4IP      -0.792400
     33 HO2        -15.8400     5.0890    -2.8120 ho      1228 4IP       0.437500
     34 HO6        -14.8070     0.8620    -0.6290 ho      1228 4IP       0.437500
     35 H1         -13.7370     4.2490    -0.1060 h1      1228 4IP       0.053700
     36 H2         -13.9540     6.0480    -1.7340 h1      1228 4IP       0.053700
     37 H3         -11.8670     4.7970    -1.8120 h1      1228 4IP       0.064200
     38 H4         -11.5670     2.9170    -3.3450 h1      1228 4IP       0.038700
     39 H5         -12.2950     2.4100    -1.0550 h1      1228 4IP       0.064200
     40 H6         -15.0850     2.5350    -2.2130 h1      1228 4IP       0.053700
@<TRIPOS>BOND
       1        1        5 1 
       2        1        6 1 
       3        1       30 1
       4        1       12 1
       5        2        7 1 
       6        2        8 1 
       7        2       29 1
       8        2       16 1
       9        3        9 1 
      10        3       10 1
      11        3       32 1
      12        3       18 1
      13        4       23 1
      14        4       24 1
      15        4       31 1
      16        4       20 1
      17       11       12 1
      18       11       13 1
      19       11       21 1
      20       11       35 1
      21       13       14 1
      22       13       15 1
      23       13       36 1
      24       14       33 1
      25       15       16 1
      26       15       17 1
      27       15       37 1
      28       17       18 1
      29       17       19 1
      30       17       38 1
      31       19       20 1
      32       19       21 1
      33       19       39 1
      34       21       22 1
      35       21       40 1
      36       22       34 1
      37       25       29 1
      38       26       30 1
      39       27       31 1
      40       28       32 1
@<TRIPOS>SUBSTRUCTURE
     1 4IP         1 TEMP              0 ****  ****    0 ROOT
